 CRYSTAL 
 PRIMVEC 
        4.2608270645         0.0000000000         0.0000000000
        0.0000000000         4.9197959900         0.0000000000
        0.0000000000         0.0000000000        10.0000000000
 # empty line
 PRIMCOORD            1
         2           1
  1   2.50111353225       2.459897995          1.00000000
  1   1.75971353225       2.459897995          1.00000000
