 CRYSTAL 
 PRIMVEC 
        4.2608270645         0.0000000000         0.0000000000
        0.0000000000         4.9197959900         0.0000000000
        0.0000000000         0.0000000000        10.0000000000
 # empty line
 PRIMCOORD            1
          8           1
  6   0.710139262         0.000000000         0.000000000
  6   1.420274207         3.689846992         0.000000000
  6   0.710139262         2.459897995         0.000000000
  6   3.550687866         0.000000000         0.000000000
  6   2.840552731         3.689846992         0.000000000
  6   1.420274207         1.229948997         0.000000000
  6   3.550687866         2.459897995         0.000000000
  6   2.840552731         1.229948997         0.000000000
